

This is a second line!
I deleted the first line.
Adding another line in "new branch".
New line... again!
